OPT_V9/Results/My_campus_w_initial_sub_3_active_25_03_11_44/powerflow_results_t11.txt
Pandapower Network Debug Info
==================================================

BUS:
       vm_pu  va_degree      p_mw    q_mvar
0   1.003739   0.151682 -0.004003 -0.001326
1   1.004578   0.212573 -0.000645  0.000000
2   1.005281   0.279712 -0.001121  0.000434
3   1.004801   0.229689 -0.001992  0.000503
4   1.000645   0.467768 -0.002557  0.003952
5   1.005304   0.207071 -0.002337 -0.000033
6   1.009234   0.347504 -0.004220 -0.000434
7   1.002266   0.076200 -0.003038 -0.000439
8   1.001309   0.054069 -0.004838 -0.004393
9   0.999975   0.000560  0.005307  0.004981
10  0.999972   0.000580  0.001899  0.001828
11  0.999969   0.000598  0.003191  0.003141
12  0.999986   0.001588  0.005440 -0.000207
13  0.999979   0.001752  0.005406  0.003574
14  0.999975   0.001838  0.003507  0.005798
15  0.999989   0.000478  0.000000  0.000000
16  0.999989   0.000478  0.000000  0.000000
17  0.999988   0.001676  0.000000  0.000000
18  0.999988   0.001676  0.000000  0.000000
19  1.000000   0.000000 -0.002690 -0.014589
20  1.000000   0.000002  0.000000  0.000000
21  1.000000   0.000000  0.002524 -0.012889
22  1.000000   0.000002  0.000000  0.000000
--------------------------------------------------

LINE:
    p_from_mw  q_from_mvar   p_to_mw  q_to_mvar         pl_mw       ql_mvar  i_from_ka   i_to_ka      i_ka  vm_from_pu  va_from_degree  vm_to_pu  va_to_degree  loading_percent
0    0.002680     0.010589 -0.002680  -0.010589  1.167008e-07  9.099352e-08   0.000420  0.000420  0.000420    1.000000        0.000002  0.999989      0.000478         0.182792
1   -0.002534     0.008889  0.002535  -0.008889  2.298197e-07  1.791942e-07   0.000356  0.000356  0.000356    1.000000        0.000002  0.999988      0.001676         0.154685
2    0.010397     0.009950 -0.010397  -0.009950  1.601556e-07  1.248760e-07   0.000554  0.000554  0.000554    0.999989        0.000478  0.999975      0.000560         0.240837
3    0.005440    -0.000207 -0.005440   0.000207  1.025041e-08  7.992413e-09   0.000210  0.000210  0.000210    0.999988        0.001676  0.999986      0.001588         0.091110
4    0.008913     0.009372 -0.008913  -0.009372  9.146996e-08  7.132064e-08   0.000498  0.000498  0.000498    0.999988        0.001676  0.999979      0.001752         0.216445
5   -0.007727    -0.000361  0.007755   0.000383  2.798687e-05  2.182182e-05   0.011165  0.011165  0.011165    0.999989        0.000478  1.003739      0.151682         4.854399
6   -0.006508    -0.000430  0.006541   0.000455  3.300778e-05  2.573671e-05   0.009415  0.009415  0.009415    0.999988        0.001676  1.005304      0.207071         4.093360
7   -0.003031    -0.000434  0.003038   0.000439  6.336165e-06  4.940412e-06   0.004420  0.004420  0.004420    0.999988        0.001676  1.002266      0.076200         1.921842
8   -0.007358    -0.000412  0.007368   0.000419  9.338800e-06  7.281617e-06   0.010638  0.010638  0.010638    0.999988        0.001676  1.001309      0.054069         4.625001
9   -0.005090    -0.004969  0.005090   0.004969  1.749842e-08  1.364381e-08   0.000274  0.000274  0.000274    0.999972        0.000580  0.999975      0.000560         0.119040
10  -0.003191    -0.003141  0.003191   0.003141  9.805645e-09  7.645623e-09   0.000172  0.000172  0.000172    0.999969        0.000598  0.999972      0.000580         0.074933
11  -0.003507    -0.005798  0.003507   0.005798  2.246125e-08  1.751341e-08   0.000261  0.000261  0.000261    0.999975        0.001838  0.999979      0.001752         0.113410
12   0.001765    -0.000435 -0.001763   0.000437  1.936838e-06  1.510184e-06   0.002612  0.002612  0.002612    1.004578        0.212573  1.003739      0.151682         1.135468
13   0.001992    -0.000503 -0.001989   0.000506  2.791803e-06  2.176815e-06   0.002951  0.002951  0.002951    1.004801        0.229689  1.003739      0.151682         1.283241
14   0.001121    -0.000434 -0.001120   0.000435  1.293263e-06  1.008378e-06   0.001726  0.001726  0.001726    1.005281        0.279712  1.004578      0.212573         0.750357
15  -0.002530     0.003973  0.002557  -0.003952  2.692463e-05  2.099358e-05   0.006790  0.006790  0.006790    1.001309        0.054069  1.000645      0.467768         2.952059
16   0.004220     0.000434 -0.004205  -0.000422  1.538487e-05  1.199584e-05   0.006068  0.006068  0.006068    1.009234        0.347504  1.005304      0.207071         2.638054
--------------------------------------------------

TRAFO:
    p_hv_mw  q_hv_mvar   p_lv_mw  q_lv_mvar    pl_mw  ql_mvar   i_hv_ka   i_lv_ka  vm_hv_pu  va_hv_degree  vm_lv_pu  va_lv_degree  loading_percent
0 -0.007717   0.000638  0.007727   0.000361  0.00001    0.001  0.000298  0.011165  0.999989      0.000478  0.999989      0.000478         0.077433
1 -0.016888  -0.000276  0.016898   0.001276  0.00001    0.001  0.000650  0.024460  0.999988      0.001676  0.999988      0.001676         0.169465
2  0.002690   0.014589 -0.002680  -0.010589  0.00001    0.004  0.000122  0.000420  1.000000      0.000000  1.000000      0.000002         0.037087
3 -0.002524   0.012889  0.002534  -0.008889  0.00001    0.004  0.000108  0.000356  1.000000      0.000000  1.000000      0.000002         0.032835
--------------------------------------------------
